*SPEF "IEEE 1481-1998"
*DESIGN "filter"
*DATE "Tue Nov 17 17:31:25 2020"
*VENDOR "Cadence Design Systems, Inc."
*PROGRAM "Innovus"
*VERSION "17.11-s080_1"
*DESIGN_FLOW "COUPLING C" "PIN_CAP NONE" "NAME_SCOPE LOCAL"
*DIVIDER /
*DELIMITER :
*BUS_DELIMITER []
*T_UNIT 1 NS
*C_UNIT 1 PF
*R_UNIT 1 OHM
*L_UNIT 1 HENRY

// MMMC spef file for corner 'my_rc'

*NAME_MAP

*1 FE_DBTN0_myfilter_iir_sw_0
*2 DIN[13]
*3 DIN[12]
*4 DIN[11]
*5 DIN[10]
*6 DIN[9]
*7 DIN[8]
*8 DIN[7]
*9 DIN[6]
*10 DIN[5]
*11 DIN[4]
*12 DIN[3]
*13 DIN[2]
*14 DIN[1]
*15 DIN[0]
*16 b0[13]
*17 b0[12]
*18 b0[11]
*19 b0[10]
*20 b0[9]
*21 b0[8]
*22 b0[7]
*23 b0[6]
*24 b0[5]
*25 b0[4]
*26 b0[3]
*27 b0[2]
*28 b0[1]
*29 b0[0]
*30 b1[13]
*31 b1[12]
*32 b1[11]
*33 b1[10]
*34 b1[9]
*35 b1[8]
*36 b1[7]
*37 b1[6]
*38 b1[5]
*39 b1[4]
*40 b1[3]
*41 b1[2]
*42 b1[1]
*43 b1[0]
*44 a1[13]
*45 a1[12]
*46 a1[11]
*47 a1[10]
*48 a1[9]
*49 a1[8]
*50 a1[7]
*51 a1[6]
*52 a1[5]
*53 a1[4]
*54 a1[3]
*55 a1[2]
*56 a1[1]
*57 a1[0]
*58 DOUT[13]
*59 DOUT[12]
*60 DOUT[11]
*61 DOUT[10]
*62 DOUT[9]
*63 DOUT[8]
*64 DOUT[7]
*65 DOUT[6]
*66 DOUT[5]
*67 DOUT[4]
*68 DOUT[3]
*69 DOUT[2]
*70 DOUT[1]
*71 DOUT[0]
*72 CLK
*73 RST_n
*74 VIN
*75 VOUT
*76 int_VOUT
*77 myfilter_iir_n16
*78 myfilter_iir_n15
*79 myfilter_iir_n14
*80 myfilter_iir_n13
*81 myfilter_iir_n12
*82 myfilter_iir_n11
*83 myfilter_iir_n10
*84 myfilter_iir_n9
*85 myfilter_iir_n8
*86 myfilter_iir_n7
*87 myfilter_iir_n6
*88 myfilter_iir_n5
*89 myfilter_iir_n4
*90 myfilter_iir_n3
*91 myfilter_iir_n2
*92 myfilter_iir_n1
*93 myfilter_iir_fb_0_
*94 myfilter_iir_fb_10_
*95 myfilter_iir_fb_11_
*96 myfilter_iir_fb_12_
*97 myfilter_iir_fb_13_
*98 myfilter_iir_fb_14_
*99 myfilter_iir_fb_1_
*100 myfilter_iir_fb_2_
*101 myfilter_iir_fb_3_
*102 myfilter_iir_fb_4_
*103 myfilter_iir_fb_5_
*104 myfilter_iir_fb_6_
*105 myfilter_iir_fb_7_
*106 myfilter_iir_fb_8_
*107 myfilter_iir_fb_9_
*108 myfilter_iir_ff_0_
*109 myfilter_iir_ff_10_
*110 myfilter_iir_ff_11_
*111 myfilter_iir_ff_12_
*112 myfilter_iir_ff_13_
*113 myfilter_iir_ff_14_
*114 myfilter_iir_ff_15_
*115 myfilter_iir_ff_1_
*116 myfilter_iir_ff_2_
*117 myfilter_iir_ff_3_
*118 myfilter_iir_ff_4_
*119 myfilter_iir_ff_5_
*120 myfilter_iir_ff_6_
*121 myfilter_iir_ff_7_
*122 myfilter_iir_ff_8_
*123 myfilter_iir_ff_9_
*124 myfilter_iir_y_0_
*125 myfilter_iir_y_10_
*126 myfilter_iir_y_11_
*127 myfilter_iir_y_12_
*128 myfilter_iir_y_13_
*129 myfilter_iir_y_14_
*130 myfilter_iir_y_15_
*131 myfilter_iir_y_1_
*132 myfilter_iir_y_2_
*133 myfilter_iir_y_3_
*134 myfilter_iir_y_4_
*135 myfilter_iir_y_5_
*136 myfilter_iir_y_6_
*137 myfilter_iir_y_7_
*138 myfilter_iir_y_8_
*139 myfilter_iir_y_9_
*140 myfilter_iir_n35
*141 myfilter_iir_n34
*142 myfilter_iir_n33
*143 myfilter_iir_n32
*144 myfilter_iir_n31
*145 myfilter_iir_n30
*146 myfilter_iir_n29
*147 myfilter_iir_n28
*148 myfilter_iir_n27
*149 myfilter_iir_n26
*150 myfilter_iir_n25
*151 myfilter_iir_n24
*152 myfilter_iir_n23
*153 myfilter_iir_n22
*154 myfilter_iir_n21
*155 myfilter_iir_n20
*156 myfilter_iir_n19
*157 myfilter_iir_mult_46_n755
*158 myfilter_iir_mult_46_n754
*159 myfilter_iir_mult_46_n753
*160 myfilter_iir_mult_46_n752
*161 myfilter_iir_mult_46_n751
*162 myfilter_iir_mult_46_n750
*163 myfilter_iir_mult_46_n749
*164 myfilter_iir_mult_46_n748
*165 myfilter_iir_mult_46_n747
*166 myfilter_iir_mult_46_n746
*167 myfilter_iir_mult_46_n745
*168 myfilter_iir_mult_46_n744
*169 myfilter_iir_mult_46_n743
*170 myfilter_iir_mult_46_n742
*171 myfilter_iir_mult_46_n741
*172 myfilter_iir_mult_46_n740
*173 myfilter_iir_mult_46_n739
*174 myfilter_iir_mult_46_n738
*175 myfilter_iir_mult_46_n737
*176 myfilter_iir_mult_46_n736
*177 myfilter_iir_mult_46_n735
*178 myfilter_iir_mult_46_n734
*179 myfilter_iir_mult_46_n733
*180 myfilter_iir_mult_46_n732
*181 myfilter_iir_mult_46_n731
*182 myfilter_iir_mult_46_n730
*183 myfilter_iir_mult_46_n729
*184 myfilter_iir_mult_46_n728
*185 myfilter_iir_mult_46_n727
*186 myfilter_iir_mult_46_n726
*187 myfilter_iir_mult_46_n725
*188 myfilter_iir_mult_46_n724
*189 myfilter_iir_mult_46_n723
*190 myfilter_iir_mult_46_n722
*191 myfilter_iir_mult_46_n721
*192 myfilter_iir_mult_46_n720
*193 myfilter_iir_mult_46_n719
*194 myfilter_iir_mult_46_n718
*195 myfilter_iir_mult_46_n717
*196 myfilter_iir_mult_46_n716
*197 myfilter_iir_mult_46_n715
*198 myfilter_iir_mult_46_n714
*199 myfilter_iir_mult_46_n713
*200 myfilter_iir_mult_46_n712
*201 myfilter_iir_mult_46_n711
*202 myfilter_iir_mult_46_n710
*203 myfilter_iir_mult_46_n709
*204 myfilter_iir_mult_46_n708
*205 myfilter_iir_mult_46_n707
*206 myfilter_iir_mult_46_n706
*207 myfilter_iir_mult_46_n705
*208 myfilter_iir_mult_46_n704
*209 myfilter_iir_mult_46_n703
*210 myfilter_iir_mult_46_n702
*211 myfilter_iir_mult_46_n701
*212 myfilter_iir_mult_46_n700
*213 myfilter_iir_mult_46_n699
*214 myfilter_iir_mult_46_n698
*215 myfilter_iir_mult_46_n697
*216 myfilter_iir_mult_46_n696
*217 myfilter_iir_mult_46_n695
*218 myfilter_iir_mult_46_n694
*219 myfilter_iir_mult_46_n693
*220 myfilter_iir_mult_46_n692
*221 myfilter_iir_mult_46_n691
*222 myfilter_iir_mult_46_n690
*223 myfilter_iir_mult_46_n689
*224 myfilter_iir_mult_46_n688
*225 myfilter_iir_mult_46_n687
*226 myfilter_iir_mult_46_n686
*227 myfilter_iir_mult_46_n685
*228 myfilter_iir_mult_46_n684
*229 myfilter_iir_mult_46_n683
*230 myfilter_iir_mult_46_n682
*231 myfilter_iir_mult_46_n681
*232 myfilter_iir_mult_46_n680
*233 myfilter_iir_mult_46_n679
*234 myfilter_iir_mult_46_n678
*235 myfilter_iir_mult_46_n677
*236 myfilter_iir_mult_46_n676
*237 myfilter_iir_mult_46_n675
*238 myfilter_iir_mult_46_n674
*239 myfilter_iir_mult_46_n673
*240 myfilter_iir_mult_46_n672
*241 myfilter_iir_mult_46_n671
*242 myfilter_iir_mult_46_n670
*243 myfilter_iir_mult_46_n669
*244 myfilter_iir_mult_46_n668
*245 myfilter_iir_mult_46_n667
*246 myfilter_iir_mult_46_n666
*247 myfilter_iir_mult_46_n665
*248 myfilter_iir_mult_46_n664
*249 myfilter_iir_mult_46_n663
*250 myfilter_iir_mult_46_n662
*251 myfilter_iir_mult_46_n661
*252 myfilter_iir_mult_46_n660
*253 myfilter_iir_mult_46_n659
*254 myfilter_iir_mult_46_n658
*255 myfilter_iir_mult_46_n657
*256 myfilter_iir_mult_46_n656
*257 myfilter_iir_mult_46_n655
*258 myfilter_iir_mult_46_n654
*259 myfilter_iir_mult_46_n653
*260 myfilter_iir_mult_46_n652
*261 myfilter_iir_mult_46_n651
*262 myfilter_iir_mult_46_n650
*263 myfilter_iir_mult_46_n649
*264 myfilter_iir_mult_46_n648
*265 myfilter_iir_mult_46_n647
*266 myfilter_iir_mult_46_n646
*267 myfilter_iir_mult_46_n645
*268 myfilter_iir_mult_46_n644
*269 myfilter_iir_mult_46_n643
*270 myfilter_iir_mult_46_n642
*271 myfilter_iir_mult_46_n641
*272 myfilter_iir_mult_46_n640
*273 myfilter_iir_mult_46_n639
*274 myfilter_iir_mult_46_n638
*275 myfilter_iir_mult_46_n637
*276 myfilter_iir_mult_46_n636
*277 myfilter_iir_mult_46_n635
*278 myfilter_iir_mult_46_n634
*279 myfilter_iir_mult_46_n633
*280 myfilter_iir_mult_46_n632
*281 myfilter_iir_mult_46_n631
*282 myfilter_iir_mult_46_n630
*283 myfilter_iir_mult_46_n629
*284 myfilter_iir_mult_46_n628
*285 myfilter_iir_mult_46_n627
*286 myfilter_iir_mult_46_n626
*287 myfilter_iir_mult_46_n625
*288 myfilter_iir_mult_46_n624
*289 myfilter_iir_mult_46_n623
*290 myfilter_iir_mult_46_n622
*291 myfilter_iir_mult_46_n621
*292 myfilter_iir_mult_46_n620
*293 myfilter_iir_mult_46_n619
*294 myfilter_iir_mult_46_n618
*295 myfilter_iir_mult_46_n617
*296 myfilter_iir_mult_46_n616
*297 myfilter_iir_mult_46_n615
*298 myfilter_iir_mult_46_n614
*299 myfilter_iir_mult_46_n613
*300 myfilter_iir_mult_46_n612
*301 myfilter_iir_mult_46_n611
*302 myfilter_iir_mult_46_n610
*303 myfilter_iir_mult_46_n609
*304 myfilter_iir_mult_46_n608
*305 myfilter_iir_mult_46_n607
*306 myfilter_iir_mult_46_n606
*307 myfilter_iir_mult_46_n605
*308 myfilter_iir_mult_46_n604
*309 myfilter_iir_mult_46_n603
*310 myfilter_iir_mult_46_n602
*311 myfilter_iir_mult_46_n601
*312 myfilter_iir_mult_46_n600
*313 myfilter_iir_mult_46_n599
*314 myfilter_iir_mult_46_n598
*315 myfilter_iir_mult_46_n597
*316 myfilter_iir_mult_46_n596
*317 myfilter_iir_mult_46_n595
*318 myfilter_iir_mult_46_n594
*319 myfilter_iir_mult_46_n592
*320 myfilter_iir_mult_46_n591
*321 myfilter_iir_mult_46_n590
*322 myfilter_iir_mult_46_n589
*323 myfilter_iir_mult_46_n588
*324 myfilter_iir_mult_46_n587
*325 myfilter_iir_mult_46_n586
*326 myfilter_iir_mult_46_n585
*327 myfilter_iir_mult_46_n584
*328 myfilter_iir_mult_46_n583
*329 myfilter_iir_mult_46_n582
*330 myfilter_iir_mult_46_n581
*331 myfilter_iir_mult_46_n580
*332 myfilter_iir_mult_46_n579
*333 myfilter_iir_mult_46_n578
*334 myfilter_iir_mult_46_n577
*335 myfilter_iir_mult_46_n576
*336 myfilter_iir_mult_46_n575
*337 myfilter_iir_mult_46_n574
*338 myfilter_iir_mult_46_n573
*339 myfilter_iir_mult_46_n572
*340 myfilter_iir_mult_46_n571
*341 myfilter_iir_mult_46_n570
*342 myfilter_iir_mult_46_n569
*343 myfilter_iir_mult_46_n355
*344 myfilter_iir_mult_46_n354
*345 myfilter_iir_mult_46_n353
*346 myfilter_iir_mult_46_n352
*347 myfilter_iir_mult_46_n351
*348 myfilter_iir_mult_46_n350
*349 myfilter_iir_mult_46_n349
*350 myfilter_iir_mult_46_n348
*351 myfilter_iir_mult_46_n347
*352 myfilter_iir_mult_46_n346
*353 myfilter_iir_mult_46_n345
*354 myfilter_iir_mult_46_n344
*355 myfilter_iir_mult_46_n341
*356 myfilter_iir_mult_46_n340
*357 myfilter_iir_mult_46_n339
*358 myfilter_iir_mult_46_n338
*359 myfilter_iir_mult_46_n337
*360 myfilter_iir_mult_46_n336
*361 myfilter_iir_mult_46_n335
*362 myfilter_iir_mult_46_n334
*363 myfilter_iir_mult_46_n333
*364 myfilter_iir_mult_46_n332
*365 myfilter_iir_mult_46_n331
*366 myfilter_iir_mult_46_n330
*367 myfilter_iir_mult_46_n329
*368 myfilter_iir_mult_46_n328
*369 myfilter_iir_mult_46_n327
*370 myfilter_iir_mult_46_n326
*371 myfilter_iir_mult_46_n325
*372 myfilter_iir_mult_46_n324
*373 myfilter_iir_mult_46_n323
*374 myfilter_iir_mult_46_n322
*375 myfilter_iir_mult_46_n321
*376 myfilter_iir_mult_46_n320
*377 myfilter_iir_mult_46_n319
*378 myfilter_iir_mult_46_n318
*379 myfilter_iir_mult_46_n317
*380 myfilter_iir_mult_46_n315
*381 myfilter_iir_mult_46_n314
*382 myfilter_iir_mult_46_n312
*383 myfilter_iir_mult_46_n311
*384 myfilter_iir_mult_46_n310
*385 myfilter_iir_mult_46_n309
*386 myfilter_iir_mult_46_n308
*387 myfilter_iir_mult_46_n307
*388 myfilter_iir_mult_46_n306
*389 myfilter_iir_mult_46_n305
*390 myfilter_iir_mult_46_n304
*391 myfilter_iir_mult_46_n303
*392 myfilter_iir_mult_46_n302
*393 myfilter_iir_mult_46_n301
*394 myfilter_iir_mult_46_n300
*395 myfilter_iir_mult_46_n299
*396 myfilter_iir_mult_46_n297
*397 myfilter_iir_mult_46_n296
*398 myfilter_iir_mult_46_n295
*399 myfilter_iir_mult_46_n294
*400 myfilter_iir_mult_46_n293
*401 myfilter_iir_mult_46_n292
*402 myfilter_iir_mult_46_n291
*403 myfilter_iir_mult_46_n290
*404 myfilter_iir_mult_46_n289
*405 myfilter_iir_mult_46_n288
*406 myfilter_iir_mult_46_n287
*407 myfilter_iir_mult_46_n286
*408 myfilter_iir_mult_46_n285
*409 myfilter_iir_mult_46_n284
*410 myfilter_iir_mult_46_n282
*411 myfilter_iir_mult_46_n281
*412 myfilter_iir_mult_46_n280
*413 myfilter_iir_mult_46_n279
*414 myfilter_iir_mult_46_n278
*415 myfilter_iir_mult_46_n276
*416 myfilter_iir_mult_46_n275
*417 myfilter_iir_mult_46_n274
*418 myfilter_iir_mult_46_n273
*419 myfilter_iir_mult_46_n272
*420 myfilter_iir_mult_46_n271
*421 myfilter_iir_mult_46_n270
*422 myfilter_iir_mult_46_n269
*423 myfilter_iir_mult_46_n267
*424 myfilter_iir_mult_46_n266
*425 myfilter_iir_mult_46_n265
*426 myfilter_iir_mult_46_n264
*427 myfilter_iir_mult_46_n263
*428 myfilter_iir_mult_46_n262
*429 myfilter_iir_mult_46_n261
*430 myfilter_iir_mult_46_n260
*431 myfilter_iir_mult_46_n259
*432 myfilter_iir_mult_46_n258
*433 myfilter_iir_mult_46_n257
*434 myfilter_iir_mult_46_n256
*435 myfilter_iir_mult_46_n255
*436 myfilter_iir_mult_46_n254
*437 myfilter_iir_mult_46_n250
*438 myfilter_iir_mult_46_n249
*439 myfilter_iir_mult_46_n248
*440 myfilter_iir_mult_46_n247
*441 myfilter_iir_mult_46_n246
*442 myfilter_iir_mult_46_n225
*443 myfilter_iir_mult_46_n224
*444 myfilter_iir_mult_46_n223
*445 myfilter_iir_mult_46_n222
*446 myfilter_iir_mult_46_n221
*447 myfilter_iir_mult_46_n220
*448 myfilter_iir_mult_46_n219
*449 myfilter_iir_mult_46_n218
*450 myfilter_iir_mult_46_n217
*451 myfilter_iir_mult_46_n216
*452 myfilter_iir_mult_46_n215
*453 myfilter_iir_mult_46_n214
*454 myfilter_iir_mult_46_n213
*455 myfilter_iir_mult_46_n212
*456 myfilter_iir_mult_46_n211
*457 myfilter_iir_mult_46_n210
*458 myfilter_iir_mult_46_n209
*459 myfilter_iir_mult_46_n208
*460 myfilter_iir_mult_46_n207
*461 myfilter_iir_mult_46_n206
*462 myfilter_iir_mult_46_n205
*463 myfilter_iir_mult_46_n204
*464 myfilter_iir_mult_46_n203
*465 myfilter_iir_mult_46_n202
*466 myfilter_iir_mult_46_n201
*467 myfilter_iir_mult_46_n200
*468 myfilter_iir_mult_46_n199
*469 myfilter_iir_mult_46_n198
*470 myfilter_iir_mult_46_n197
*471 myfilter_iir_mult_46_n196
*472 myfilter_iir_mult_46_n195
*473 myfilter_iir_mult_46_n194
*474 myfilter_iir_mult_46_n193
*475 myfilter_iir_mult_46_n192
*476 myfilter_iir_mult_46_n191
*477 myfilter_iir_mult_46_n190
*478 myfilter_iir_mult_46_n189
*479 myfilter_iir_mult_46_n188
*480 myfilter_iir_mult_46_n187
*481 myfilter_iir_mult_46_n186
*482 myfilter_iir_mult_46_n185
*483 myfilter_iir_mult_46_n184
*484 myfilter_iir_mult_46_n183
*485 myfilter_iir_mult_46_n182
*486 myfilter_iir_mult_46_n181
*487 myfilter_iir_mult_46_n180
*488 myfilter_iir_mult_46_n179
*489 myfilter_iir_mult_46_n178
*490 myfilter_iir_mult_46_n177
*491 myfilter_iir_mult_46_n176
*492 myfilter_iir_mult_46_n175
*493 myfilter_iir_mult_46_n174
*494 myfilter_iir_mult_46_n173
*495 myfilter_iir_mult_46_n172
*496 myfilter_iir_mult_46_n171
*497 myfilter_iir_mult_46_n170
*498 myfilter_iir_mult_46_n169
*499 myfilter_iir_mult_46_n168
*500 myfilter_iir_mult_46_n167
*501 myfilter_iir_mult_46_n166
*502 myfilter_iir_mult_46_n165
*503 myfilter_iir_mult_46_n164
*504 myfilter_iir_mult_46_n163
*505 myfilter_iir_mult_46_n162
*506 myfilter_iir_mult_46_n161
*507 myfilter_iir_mult_46_n160
*508 myfilter_iir_mult_46_n159
*509 myfilter_iir_mult_46_n158
*510 myfilter_iir_mult_46_n157
*511 myfilter_iir_mult_46_n156
*512 myfilter_iir_mult_46_n155
*513 myfilter_iir_mult_46_n154
*514 myfilter_iir_mult_46_n153
*515 myfilter_iir_mult_46_n152
*516 myfilter_iir_mult_46_n151
*517 myfilter_iir_mult_46_n150
*518 myfilter_iir_mult_46_n149
*519 myfilter_iir_mult_46_n148
*520 myfilter_iir_mult_46_n147
*521 myfilter_iir_mult_46_n146
*522 myfilter_iir_mult_46_n145
*523 myfilter_iir_mult_46_n144
*524 myfilter_iir_mult_46_n143
*525 myfilter_iir_mult_46_n142
*526 myfilter_iir_mult_46_n141
*527 myfilter_iir_mult_46_n140
*528 myfilter_iir_mult_46_n139
*529 myfilter_iir_mult_46_n138
*530 myfilter_iir_mult_46_n137
*531 myfilter_iir_mult_46_n136
*532 myfilter_iir_mult_46_n135
*533 myfilter_iir_mult_46_n134
*534 myfilter_iir_mult_46_n133
*535 myfilter_iir_mult_46_n132
*536 myfilter_iir_mult_46_n131
*537 myfilter_iir_mult_46_n130
*538 myfilter_iir_mult_46_n128
*539 myfilter_iir_mult_46_n127
*540 myfilter_iir_mult_46_n126
*541 myfilter_iir_mult_46_n125
*542 myfilter_iir_mult_46_n124
*543 myfilter_iir_mult_46_n123
*544 myfilter_iir_mult_46_n122
*545 myfilter_iir_mult_46_n121
*546 myfilter_iir_mult_46_n120
*547 myfilter_iir_mult_46_n119
*548 myfilter_iir_mult_46_n118
*549 myfilter_iir_mult_46_n117
*550 myfilter_iir_mult_46_n116
*551 myfilter_iir_mult_46_n115
*552 myfilter_iir_mult_46_n114
*553 myfilter_iir_mult_46_n113
*554 myfilter_iir_mult_46_n112
*555 myfilter_iir_mult_46_n111
*556 myfilter_iir_mult_46_n110
*557 myfilter_iir_mult_46_n109
*558 myfilter_iir_mult_46_n108
*559 myfilter_iir_mult_46_n106
*560 myfilter_iir_mult_46_n105
*561 myfilter_iir_mult_46_n104
*562 myfilter_iir_mult_46_n103
*563 myfilter_iir_mult_46_n102
*564 myfilter_iir_mult_46_n101
*565 myfilter_iir_mult_46_n100
*566 myfilter_iir_mult_46_n99
*567 myfilter_iir_mult_46_n98
*568 myfilter_iir_mult_46_n97
*569 myfilter_iir_mult_46_n96
*570 myfilter_iir_mult_46_n95
*571 myfilter_iir_mult_46_n94
*572 myfilter_iir_mult_46_n93
*573 myfilter_iir_mult_46_n92
*574 myfilter_iir_mult_46_n91
*575 myfilter_iir_mult_46_n90
*576 myfilter_iir_mult_46_n88
*577 myfilter_iir_mult_46_n87
*578 myfilter_iir_mult_46_n86
*579 myfilter_iir_mult_46_n85
*580 myfilter_iir_mult_46_n84
*581 myfilter_iir_mult_46_n83
*582 myfilter_iir_mult_46_n82
*583 myfilter_iir_mult_46_n81
*584 myfilter_iir_mult_46_n80
*585 myfilter_iir_mult_46_n79
*586 myfilter_iir_mult_46_n78
*587 myfilter_iir_mult_46_n77
*588 myfilter_iir_mult_46_n76
*589 myfilter_iir_mult_46_n74
*590 myfilter_iir_mult_46_n73
*591 myfilter_iir_mult_46_n72
*592 myfilter_iir_mult_46_n71
*593 myfilter_iir_mult_46_n70
*594 myfilter_iir_mult_46_n69
*595 myfilter_iir_mult_46_n68
*596 myfilter_iir_mult_46_n67
*597 myfilter_iir_mult_46_n66
*598 myfilter_iir_mult_46_n64
*599 myfilter_iir_mult_46_n63
*600 myfilter_iir_mult_46_n62
*601 myfilter_iir_mult_46_n61
*602 myfilter_iir_mult_46_n60
*603 myfilter_iir_mult_46_n58
*604 myfilter_iir_mult_46_n45
*605 myfilter_iir_mult_46_n44
*606 myfilter_iir_mult_46_n43
*607 myfilter_iir_mult_46_n42
*608 myfilter_iir_mult_46_n41
*609 myfilter_iir_mult_46_n40
*610 myfilter_iir_mult_46_n39
*611 myfilter_iir_mult_46_n38
*612 myfilter_iir_mult_46_n37
*613 myfilter_iir_mult_46_n36
*614 myfilter_iir_mult_46_n35
*615 myfilter_iir_mult_46_n34
*616 myfilter_iir_mult_46_n33
*617 myfilter_iir_mult_46_n32
*618 myfilter_iir_mult_46_n31
*619 myfilter_iir_mult_49_n755
*620 myfilter_iir_mult_49_n754
*621 myfilter_iir_mult_49_n753
*622 myfilter_iir_mult_49_n752
*623 myfilter_iir_mult_49_n751
*624 myfilter_iir_mult_49_n750
*625 myfilter_iir_mult_49_n749
*626 myfilter_iir_mult_49_n748
*627 myfilter_iir_mult_49_n747
*628 myfilter_iir_mult_49_n746
*629 myfilter_iir_mult_49_n745
*630 myfilter_iir_mult_49_n744
*631 myfilter_iir_mult_49_n743
*632 myfilter_iir_mult_49_n742
*633 myfilter_iir_mult_49_n741
*634 myfilter_iir_mult_49_n740
*635 myfilter_iir_mult_49_n739
*636 myfilter_iir_mult_49_n738
*637 myfilter_iir_mult_49_n737
*638 myfilter_iir_mult_49_n736
*639 myfilter_iir_mult_49_n735
*640 myfilter_iir_mult_49_n734
*641 myfilter_iir_mult_49_n733
*642 myfilter_iir_mult_49_n732
*643 myfilter_iir_mult_49_n731
*644 myfilter_iir_mult_49_n730
*645 myfilter_iir_mult_49_n729
*646 myfilter_iir_mult_49_n728
*647 myfilter_iir_mult_49_n727
*648 myfilter_iir_mult_49_n726
*649 myfilter_iir_mult_49_n725
*650 myfilter_iir_mult_49_n724
*651 myfilter_iir_mult_49_n723
*652 myfilter_iir_mult_49_n722
*653 myfilter_iir_mult_49_n721
*654 myfilter_iir_mult_49_n720
*655 myfilter_iir_mult_49_n719
*656 myfilter_iir_mult_49_n718
*657 myfilter_iir_mult_49_n717
*658 myfilter_iir_mult_49_n716
*659 myfilter_iir_mult_49_n715
*660 myfilter_iir_mult_49_n714
*661 myfilter_iir_mult_49_n713
*662 myfilter_iir_mult_49_n712
*663 myfilter_iir_mult_49_n711
*664 myfilter_iir_mult_49_n710
*665 myfilter_iir_mult_49_n709
*666 myfilter_iir_mult_49_n708
*667 myfilter_iir_mult_49_n707
*668 myfilter_iir_mult_49_n706
*669 myfilter_iir_mult_49_n705
*670 myfilter_iir_mult_49_n704
*671 myfilter_iir_mult_49_n703
*672 myfilter_iir_mult_49_n702
*673 myfilter_iir_mult_49_n701
*674 myfilter_iir_mult_49_n700
*675 myfilter_iir_mult_49_n699
*676 myfilter_iir_mult_49_n698
*677 myfilter_iir_mult_49_n697
*678 myfilter_iir_mult_49_n696
*679 myfilter_iir_mult_49_n695
*680 myfilter_iir_mult_49_n694
*681 myfilter_iir_mult_49_n693
*682 myfilter_iir_mult_49_n692
*683 myfilter_iir_mult_49_n691
*684 myfilter_iir_mult_49_n690
*685 myfilter_iir_mult_49_n689
*686 myfilter_iir_mult_49_n688
*687 myfilter_iir_mult_49_n687
*688 myfilter_iir_mult_49_n686
*689 myfilter_iir_mult_49_n685
*690 myfilter_iir_mult_49_n684
*691 myfilter_iir_mult_49_n683
*692 myfilter_iir_mult_49_n682
*693 myfilter_iir_mult_49_n681
*694 myfilter_iir_mult_49_n680
*695 myfilter_iir_mult_49_n679
*696 myfilter_iir_mult_49_n678
*697 myfilter_iir_mult_49_n677
*698 myfilter_iir_mult_49_n676
*699 myfilter_iir_mult_49_n675
*700 myfilter_iir_mult_49_n674
*701 myfilter_iir_mult_49_n673
*702 myfilter_iir_mult_49_n672
*703 myfilter_iir_mult_49_n671
*704 myfilter_iir_mult_49_n670
*705 myfilter_iir_mult_49_n669
*706 myfilter_iir_mult_49_n668
*707 myfilter_iir_mult_49_n667
*708 myfilter_iir_mult_49_n666
*709 myfilter_iir_mult_49_n665
*710 myfilter_iir_mult_49_n664
*711 myfilter_iir_mult_49_n663
*712 myfilter_iir_mult_49_n662
*713 myfilter_iir_mult_49_n661
*714 myfilter_iir_mult_49_n660
*715 myfilter_iir_mult_49_n659
*716 myfilter_iir_mult_49_n658
*717 myfilter_iir_mult_49_n657
*718 myfilter_iir_mult_49_n656
*719 myfilter_iir_mult_49_n655
*720 myfilter_iir_mult_49_n654
*721 myfilter_iir_mult_49_n653
*722 myfilter_iir_mult_49_n652
*723 myfilter_iir_mult_49_n651
*724 myfilter_iir_mult_49_n650
*725 myfilter_iir_mult_49_n649
*726 myfilter_iir_mult_49_n648
*727 myfilter_iir_mult_49_n647
*728 myfilter_iir_mult_49_n646
*729 myfilter_iir_mult_49_n645
*730 myfilter_iir_mult_49_n644
*731 myfilter_iir_mult_49_n643
*732 myfilter_iir_mult_49_n642
*733 myfilter_iir_mult_49_n641
*734 myfilter_iir_mult_49_n640
*735 myfilter_iir_mult_49_n639
*736 myfilter_iir_mult_49_n638
*737 myfilter_iir_mult_49_n637
*738 myfilter_iir_mult_49_n636
*739 myfilter_iir_mult_49_n635
*740 myfilter_iir_mult_49_n634
*741 myfilter_iir_mult_49_n633
*742 myfilter_iir_mult_49_n632
*743 myfilter_iir_mult_49_n631
*744 myfilter_iir_mult_49_n630
*745 myfilter_iir_mult_49_n629
*746 myfilter_iir_mult_49_n628
*747 myfilter_iir_mult_49_n627
*748 myfilter_iir_mult_49_n626
*749 myfilter_iir_mult_49_n625
*750 myfilter_iir_mult_49_n624
*751 myfilter_iir_mult_49_n623
*752 myfilter_iir_mult_49_n622
*753 myfilter_iir_mult_49_n621
*754 myfilter_iir_mult_49_n620
*755 myfilter_iir_mult_49_n619
*756 myfilter_iir_mult_49_n618
*757 myfilter_iir_mult_49_n617
*758 myfilter_iir_mult_49_n616
*759 myfilter_iir_mult_49_n615
*760 myfilter_iir_mult_49_n614
*761 myfilter_iir_mult_49_n613
*762 myfilter_iir_mult_49_n612
*763 myfilter_iir_mult_49_n611
*764 myfilter_iir_mult_49_n610
*765 myfilter_iir_mult_49_n609
*766 myfilter_iir_mult_49_n608
*767 myfilter_iir_mult_49_n607
*768 myfilter_iir_mult_49_n606
*769 myfilter_iir_mult_49_n605
*770 myfilter_iir_mult_49_n604
*771 myfilter_iir_mult_49_n603
*772 myfilter_iir_mult_49_n602
*773 myfilter_iir_mult_49_n601
*774 myfilter_iir_mult_49_n600
*775 myfilter_iir_mult_49_n599
*776 myfilter_iir_mult_49_n598
*777 myfilter_iir_mult_49_n597
*778 myfilter_iir_mult_49_n596
*779 myfilter_iir_mult_49_n595
*780 myfilter_iir_mult_49_n594
*781 myfilter_iir_mult_49_n593
*782 myfilter_iir_mult_49_n592
*783 myfilter_iir_mult_49_n591
*784 myfilter_iir_mult_49_n590
*785 myfilter_iir_mult_49_n589
*786 myfilter_iir_mult_49_n588
*787 myfilter_iir_mult_49_n587
*788 myfilter_iir_mult_49_n586
*789 myfilter_iir_mult_49_n585
*790 myfilter_iir_mult_49_n584
*791 myfilter_iir_mult_49_n583
*792 myfilter_iir_mult_49_n582
*793 myfilter_iir_mult_49_n581
*794 myfilter_iir_mult_49_n580
*795 myfilter_iir_mult_49_n579
*796 myfilter_iir_mult_49_n578
*797 myfilter_iir_mult_49_n577
*798 myfilter_iir_mult_49_n576
*799 myfilter_iir_mult_49_n575
*800 myfilter_iir_mult_49_n574
*801 myfilter_iir_mult_49_n573
*802 myfilter_iir_mult_49_n572
*803 myfilter_iir_mult_49_n571
*804 myfilter_iir_mult_49_n570
*805 myfilter_iir_mult_49_n569
*806 myfilter_iir_mult_49_n355
*807 myfilter_iir_mult_49_n354
*808 myfilter_iir_mult_49_n353
*809 myfilter_iir_mult_49_n352
*810 myfilter_iir_mult_49_n351
*811 myfilter_iir_mult_49_n350
*812 myfilter_iir_mult_49_n349
*813 myfilter_iir_mult_49_n348
*814 myfilter_iir_mult_49_n347
*815 myfilter_iir_mult_49_n346
*816 myfilter_iir_mult_49_n345
*817 myfilter_iir_mult_49_n344
*818 myfilter_iir_mult_49_n341
*819 myfilter_iir_mult_49_n340
*820 myfilter_iir_mult_49_n339
*821 myfilter_iir_mult_49_n338
*822 myfilter_iir_mult_49_n337
*823 myfilter_iir_mult_49_n336
*824 myfilter_iir_mult_49_n335
*825 myfilter_iir_mult_49_n334
*826 myfilter_iir_mult_49_n333
*827 myfilter_iir_mult_49_n332
*828 myfilter_iir_mult_49_n331
*829 myfilter_iir_mult_49_n330
*830 myfilter_iir_mult_49_n329
*831 myfilter_iir_mult_49_n328
*832 myfilter_iir_mult_49_n327
*833 myfilter_iir_mult_49_n326
*834 myfilter_iir_mult_49_n325
*835 myfilter_iir_mult_49_n324
*836 myfilter_iir_mult_49_n323
*837 myfilter_iir_mult_49_n322
*838 myfilter_iir_mult_49_n321
*839 myfilter_iir_mult_49_n320
*840 myfilter_iir_mult_49_n319
*841 myfilter_iir_mult_49_n318
*842 myfilter_iir_mult_49_n317
*843 myfilter_iir_mult_49_n315
*844 myfilter_iir_mult_49_n314
*845 myfilter_iir_mult_49_n312
*846 myfilter_iir_mult_49_n311
*847 myfilter_iir_mult_49_n310
*848 myfilter_iir_mult_49_n309
*849 myfilter_iir_mult_49_n308
*850 myfilter_iir_mult_49_n307
*851 myfilter_iir_mult_49_n306
*852 myfilter_iir_mult_49_n305
*853 myfilter_iir_mult_49_n304
*854 myfilter_iir_mult_49_n303
*855 myfilter_iir_mult_49_n302
*856 myfilter_iir_mult_49_n301
*857 myfilter_iir_mult_49_n300
*858 myfilter_iir_mult_49_n299
*859 myfilter_iir_mult_49_n297
*860 myfilter_iir_mult_49_n296
*861 myfilter_iir_mult_49_n295
*862 myfilter_iir_mult_49_n294
*863 myfilter_iir_mult_49_n293
*864 myfilter_iir_mult_49_n292
*865 myfilter_iir_mult_49_n291
*866 myfilter_iir_mult_49_n290
*867 myfilter_iir_mult_49_n289
*868 myfilter_iir_mult_49_n288
*869 myfilter_iir_mult_49_n287
*870 myfilter_iir_mult_49_n286
*871 myfilter_iir_mult_49_n285
*872 myfilter_iir_mult_49_n284
*873 myfilter_iir_mult_49_n282
*874 myfilter_iir_mult_49_n281
*875 myfilter_iir_mult_49_n280
*876 myfilter_iir_mult_49_n279
*877 myfilter_iir_mult_49_n278
*878 myfilter_iir_mult_49_n276
*879 myfilter_iir_mult_49_n275
*880 myfilter_iir_mult_49_n274
*881 myfilter_iir_mult_49_n273
*882 myfilter_iir_mult_49_n272
*883 myfilter_iir_mult_49_n271
*884 myfilter_iir_mult_49_n270
*885 myfilter_iir_mult_49_n269
*886 myfilter_iir_mult_49_n267
*887 myfilter_iir_mult_49_n266
*888 myfilter_iir_mult_49_n265
*889 myfilter_iir_mult_49_n264
*890 myfilter_iir_mult_49_n263
*891 myfilter_iir_mult_49_n262
*892 myfilter_iir_mult_49_n261
*893 myfilter_iir_mult_49_n260
*894 myfilter_iir_mult_49_n259
*895 myfilter_iir_mult_49_n258
*896 myfilter_iir_mult_49_n257
*897 myfilter_iir_mult_49_n256
*898 myfilter_iir_mult_49_n255
*899 myfilter_iir_mult_49_n254
*900 myfilter_iir_mult_49_n250
*901 myfilter_iir_mult_49_n249
*902 myfilter_iir_mult_49_n248
*903 myfilter_iir_mult_49_n247
*904 myfilter_iir_mult_49_n246
*905 myfilter_iir_mult_49_n225
*906 myfilter_iir_mult_49_n224
*907 myfilter_iir_mult_49_n223
*908 myfilter_iir_mult_49_n222
*909 myfilter_iir_mult_49_n221
*910 myfilter_iir_mult_49_n220
*911 myfilter_iir_mult_49_n219
*912 myfilter_iir_mult_49_n218
*913 myfilter_iir_mult_49_n217
*914 myfilter_iir_mult_49_n216
*915 myfilter_iir_mult_49_n215
*916 myfilter_iir_mult_49_n214
*917 myfilter_iir_mult_49_n213
*918 myfilter_iir_mult_49_n212
*919 myfilter_iir_mult_49_n211
*920 myfilter_iir_mult_49_n210
*921 myfilter_iir_mult_49_n209
*922 myfilter_iir_mult_49_n208
*923 myfilter_iir_mult_49_n207
*924 myfilter_iir_mult_49_n206
*925 myfilter_iir_mult_49_n205
*926 myfilter_iir_mult_49_n204
*927 myfilter_iir_mult_49_n203
*928 myfilter_iir_mult_49_n202
*929 myfilter_iir_mult_49_n201
*930 myfilter_iir_mult_49_n200
*931 myfilter_iir_mult_49_n199
*932 myfilter_iir_mult_49_n198
*933 myfilter_iir_mult_49_n197
*934 myfilter_iir_mult_49_n196
*935 myfilter_iir_mult_49_n195
*936 myfilter_iir_mult_49_n194
*937 myfilter_iir_mult_49_n193
*938 myfilter_iir_mult_49_n192
*939 myfilter_iir_mult_49_n191
*940 myfilter_iir_mult_49_n190
*941 myfilter_iir_mult_49_n189
*942 myfilter_iir_mult_49_n188
*943 myfilter_iir_mult_49_n187
*944 myfilter_iir_mult_49_n186
*945 myfilter_iir_mult_49_n185
*946 myfilter_iir_mult_49_n184
*947 myfilter_iir_mult_49_n183
*948 myfilter_iir_mult_49_n182
*949 myfilter_iir_mult_49_n181
*950 myfilter_iir_mult_49_n180
*951 myfilter_iir_mult_49_n179
*952 myfilter_iir_mult_49_n178
*953 myfilter_iir_mult_49_n177
*954 myfilter_iir_mult_49_n176
*955 myfilter_iir_mult_49_n175
*956 myfilter_iir_mult_49_n174
*957 myfilter_iir_mult_49_n173
*958 myfilter_iir_mult_49_n172
*959 myfilter_iir_mult_49_n171
*960 myfilter_iir_mult_49_n170
*961 myfilter_iir_mult_49_n169
*962 myfilter_iir_mult_49_n168
*963 myfilter_iir_mult_49_n167
*964 myfilter_iir_mult_49_n166
*965 myfilter_iir_mult_49_n165
*966 myfilter_iir_mult_49_n164
*967 myfilter_iir_mult_49_n163
*968 myfilter_iir_mult_49_n162
*969 myfilter_iir_mult_49_n161
*970 myfilter_iir_mult_49_n160
*971 myfilter_iir_mult_49_n159
*972 myfilter_iir_mult_49_n158
*973 myfilter_iir_mult_49_n157
*974 myfilter_iir_mult_49_n156
*975 myfilter_iir_mult_49_n155
*976 myfilter_iir_mult_49_n154
*977 myfilter_iir_mult_49_n153
*978 myfilter_iir_mult_49_n152
*979 myfilter_iir_mult_49_n151
*980 myfilter_iir_mult_49_n150
*981 myfilter_iir_mult_49_n149
*982 myfilter_iir_mult_49_n148
*983 myfilter_iir_mult_49_n147
*984 myfilter_iir_mult_49_n146
*985 myfilter_iir_mult_49_n145
*986 myfilter_iir_mult_49_n144
*987 myfilter_iir_mult_49_n143
*988 myfilter_iir_mult_49_n142
*989 myfilter_iir_mult_49_n141
*990 myfilter_iir_mult_49_n140
*991 myfilter_iir_mult_49_n139
*992 myfilter_iir_mult_49_n138
*993 myfilter_iir_mult_49_n137
*994 myfilter_iir_mult_49_n136
*995 myfilter_iir_mult_49_n135
*996 myfilter_iir_mult_49_n134
*997 myfilter_iir_mult_49_n133
*998 myfilter_iir_mult_49_n132
*999 myfilter_iir_mult_49_n131
*1000 myfilter_iir_mult_49_n130
*1001 myfilter_iir_mult_49_n128
*1002 myfilter_iir_mult_49_n127
*1003 myfilter_iir_mult_49_n126
*1004 myfilter_iir_mult_49_n125
*1005 myfilter_iir_mult_49_n124
*1006 myfilter_iir_mult_49_n123
*1007 myfilter_iir_mult_49_n122
*1008 myfilter_iir_mult_49_n121
*1009 myfilter_iir_mult_49_n120
*1010 myfilter_iir_mult_49_n119
*1011 myfilter_iir_mult_49_n118
*1012 myfilter_iir_mult_49_n117
*1013 myfilter_iir_mult_49_n116
*1014 myfilter_iir_mult_49_n115
*1015 myfilter_iir_mult_49_n114
*1016 myfilter_iir_mult_49_n113
*1017 myfilter_iir_mult_49_n112
*1018 myfilter_iir_mult_49_n111
*1019 myfilter_iir_mult_49_n110
*1020 myfilter_iir_mult_49_n109
*1021 myfilter_iir_mult_49_n108
*1022 myfilter_iir_mult_49_n106
*1023 myfilter_iir_mult_49_n105
*1024 myfilter_iir_mult_49_n104
*1025 myfilter_iir_mult_49_n103
*1026 myfilter_iir_mult_49_n102
*1027 myfilter_iir_mult_49_n101